
     RDKit          3D

  8  8  0  0  0  0  0  0  0  0999 V2000
    4.9015   -2.0688    1.0254 Cl  0  0  0  0  0  0  0  0  0  0  0  0
    5.0816    0.0467   -1.3476 Cl  0  0  0  0  0  0  0  0  0  0  0  0
    1.5913    0.9169    0.3668 C   0  0  0  0  0  0  0  0  0  0  0  0
    1.5317   -0.0084    1.3970 C   0  0  0  0  0  0  0  0  0  0  0  0
    2.5539   -0.9338    1.5888 C   0  0  0  0  0  0  0  0  0  0  0  0
    3.6433   -0.9297    0.7463 C   0  0  0  0  0  0  0  0  0  0  0  0
    3.7161   -0.0026   -0.2895 C   0  0  0  0  0  0  0  0  0  0  0  0
    2.6973    0.9254   -0.4755 C   0  0  0  0  0  0  0  0  0  0  0  0
  1  6  1  0
  2  7  1  0
  4  3  2  0
  5  4  1  0
  6  5  2  0
  7  6  1  0
  8  3  1  0
  7  8  2  0
M  END
