ADAMOL
     RDKit          3D

 27 29  0  0  0  0  0  0  0  0999 V2000
    5.9365    3.7135    8.6136 O   0  0  0  0  0  0  0  0  0  0  0  0
    6.8974    3.4725    7.5744 C   0  0  2  0  0  0  0  0  0  0  0  0
    6.1886    3.3028    6.2366 C   0  0  0  0  0  0  0  0  0  0  0  0
    7.2177    3.0539    5.1350 C   0  0  1  0  0  0  0  0  0  0  0  0
    8.1658    4.2367    5.0718 C   0  0  0  0  0  0  0  0  0  0  0  0
    8.8936    4.3969    6.3945 C   0  0  2  0  0  0  0  0  0  0  0  0
    9.6737    3.1363    6.7212 C   0  0  0  0  0  0  0  0  0  0  0  0
    8.7129    1.9566    6.7796 C   0  0  1  0  0  0  0  0  0  0  0  0
    7.6743    2.2024    7.8689 C   0  0  0  0  0  0  0  0  0  0  0  0
    8.0089    1.7917    5.4493 C   0  0  0  0  0  0  0  0  0  0  0  0
    7.8471    4.6490    7.5058 C   0  0  0  0  0  0  0  0  0  0  0  0
    5.7351    4.1685    6.0444 H   0  0  0  0  0  0  0  0  0  0  0  0
    5.6019    2.5544    6.2943 H   0  0  0  0  0  0  0  0  0  0  0  0
    6.7642    2.9223    4.1719 H   0  0  0  0  0  0  0  0  0  0  0  0
    8.8270    4.1019    4.3950 H   0  0  0  0  0  0  0  0  0  0  0  0
    7.7028    5.1786    4.9620 H   0  0  0  0  0  0  0  0  0  0  0  0
    9.4074    5.1754    6.3657 H   0  0  0  0  0  0  0  0  0  0  0  0
   10.3793    2.9889    6.0005 H   0  0  0  0  0  0  0  0  0  0  0  0
   10.1431    3.2045    7.5655 H   0  0  0  0  0  0  0  0  0  0  0  0
    9.2440    1.1385    6.9622 H   0  0  0  0  0  0  0  0  0  0  0  0
    8.0945    2.3467    8.7056 H   0  0  0  0  0  0  0  0  0  0  0  0
    6.9719    1.4936    7.9574 H   0  0  0  0  0  0  0  0  0  0  0  0
    7.3191    1.0116    5.5145 H   0  0  0  0  0  0  0  0  0  0  0  0
    8.6812    1.6490    4.6819 H   0  0  0  0  0  0  0  0  0  0  0  0
    7.2605    5.4402    7.3486 H   0  0  0  0  0  0  0  0  0  0  0  0
    8.2959    4.7552    8.3274 H   0  0  0  0  0  0  0  0  0  0  0  0
    5.4671    4.4270    8.5251 H   0  0  0  0  0  0  0  0  0  0  0  0
  2  1  1  1
  2  3  1  0
  3  4  1  0
  4  5  1  0
  5  6  1  0
  6  7  1  0
  7  8  1  0
  8  9  1  0
  9  2  1  0
 10  4  1  0
 11  2  1  0
 12  3  1  0
 13  3  1  0
  4 14  1  6
 15  5  1  0
 16  5  1  0
  6 17  1  6
 18  7  1  0
 19  7  1  0
  8 20  1  1
 21  9  1  0
 22  9  1  0
 23 10  1  0
 24 10  1  0
 25 11  1  0
 26 11  1  0
 27  1  1  0
  6 11  1  0
  8 10  1  0
M  END
