29

S       3.9616   6.3132   1.0728
O       3.5642   6.1845   2.4540
O       5.1101   7.0758   0.6776
N       2.6750   7.0665   0.3403
N       4.4947   0.8757  -1.1332
C       1.3932   6.4728   0.3488
C       0.6203   6.6371   1.4880
C      -0.6663   6.1101   1.6762
C      -1.1606   5.3770   0.5756
C      -0.3247   5.1352  -0.5262
C       0.9571   5.6529  -0.6523
C       4.1482   4.6981   0.3608
C       4.7539   4.4671  -0.8466
C       4.7903   3.2116  -1.3389
C      4.2887   2.1297  -0.5968
C      3.6975   2.3638   0.6559
C      3.6248   3.6363   1.1042
H       1.0419   7.2184   2.2947
H      -1.2285   6.2481   2.5862
H      -2.1759   5.0065   0.5811
H      -0.7027   4.5105  -1.3220
H       1.5822   5.4173  -1.5025
H       5.1998   5.2824  -1.3987
H       5.2095   3.0349  -2.3183
H       3.3074   1.5469   1.2454
H       3.1547   3.8378   2.0552
H      4.1724   0.0294  -0.5455
H      5.4033   0.3162  -0.9685
H      4.7103   0.3286  -2.0383