CHEMBL4089284_P10000009
     RDKit          3D

 70 74  0  0  0  0  0  0  0  0999 V2000
    8.8319   -0.7609    0.3575 C   0  0  0  0  0  0  0  0  0  0  0  0
    8.1878    0.5420    0.6152 N   0  0  0  0  0  4  0  0  0  0  0  0
    7.8193    1.2421   -0.6334 C   0  0  0  0  0  0  0  0  0  0  0  0
    6.5947    0.6121   -1.3182 C   0  0  0  0  0  0  0  0  0  0  0  0
    5.4353    0.5274   -0.4112 N   0  0  0  0  0  0  0  0  0  0  0  0
    5.7828   -0.1685    0.8462 C   0  0  0  0  0  0  0  0  0  0  0  0
    7.0337    0.4204    1.5317 C   0  0  0  0  0  0  0  0  0  0  0  0
    4.7790    1.8357   -0.1950 C   0  0  0  0  0  0  0  0  0  0  0  0
    3.3477    1.6340    0.2227 C   0  0  0  0  0  0  0  0  0  0  0  0
    2.9915    2.0309    1.3655 O   0  0  0  0  0  0  0  0  0  0  0  0
    2.3879    0.9978   -0.6505 N   0  0  0  0  0  0  0  0  0  0  0  0
    2.6151    0.9655   -2.0999 C   0  0  0  0  0  0  0  0  0  0  0  0
    1.1478    0.4941   -0.1118 C   0  0  0  0  0  0  0  0  0  0  0  0
   -0.0776    0.8104   -0.7210 C   0  0  0  0  0  0  0  0  0  0  0  0
   -1.2736    0.2914   -0.2193 C   0  0  0  0  0  0  0  0  0  0  0  0
   -1.2674   -0.5492    0.9100 C   0  0  0  0  0  0  0  0  0  0  0  0
   -0.0433   -0.8573    1.5218 C   0  0  0  0  0  0  0  0  0  0  0  0
    1.1532   -0.3413    1.0170 C   0  0  0  0  0  0  0  0  0  0  0  0
   -2.4808   -1.1237    1.4316 N   0  0  0  0  0  0  0  0  0  0  0  0
   -3.7825   -0.8328    0.9030 C   0  0  0  0  0  0  0  0  0  0  0  0
   -4.3277    0.3922    1.0692 C   0  0  0  0  0  0  0  0  0  0  0  0
   -5.5452    0.9761    0.4681 C   0  0  0  0  0  0  0  0  0  0  0  0
   -6.3651    0.5238   -0.5740 C   0  0  0  0  0  0  0  0  0  0  0  0
   -7.4329    1.3385   -1.0093 C   0  0  0  0  0  0  0  0  0  0  0  0
   -7.6284    2.6080   -0.4124 C   0  0  0  0  0  0  0  0  0  0  0  0
   -6.7627    3.0695    0.5892 C   0  0  0  0  0  0  0  0  0  0  0  0
   -5.7261    2.2394    1.0056 C   0  0  0  0  0  0  0  0  0  0  0  0
   -4.7048    2.5873    1.9300 N   0  0  0  0  0  0  0  0  0  0  0  0
   -3.8359    1.4620    1.9532 C   0  0  0  0  0  0  0  0  0  0  0  0
   -2.8113    1.4016    2.6825 O   0  0  0  0  0  0  0  0  0  0  0  0
   -8.3248    0.8742   -2.0944 C   0  0  0  0  0  0  0  0  0  0  0  0
   -9.2643    1.6046   -2.5078 O   0  0  0  0  0  0  0  0  0  0  0  0
   -8.1393   -0.3771   -2.6715 O   0  0  0  0  0  1  0  0  0  0  0  0
   -4.5082   -1.9361    0.2483 C   0  0  0  0  0  0  0  0  0  0  0  0
   -5.7475   -2.3738    0.7468 C   0  0  0  0  0  0  0  0  0  0  0  0
   -6.4140   -3.4388    0.1332 C   0  0  0  0  0  0  0  0  0  0  0  0
   -5.8412   -4.0833   -0.9666 C   0  0  0  0  0  0  0  0  0  0  0  0
   -4.5985   -3.6673   -1.4520 C   0  0  0  0  0  0  0  0  0  0  0  0
   -3.9282   -2.6027   -0.8420 C   0  0  0  0  0  0  0  0  0  0  0  0
    8.1367   -1.4835   -0.1181 H   0  0  0  0  0  0  0  0  0  0  0  0
    9.1960   -1.2056    1.3096 H   0  0  0  0  0  0  0  0  0  0  0  0
    9.7158   -0.6324   -0.3049 H   0  0  0  0  0  0  0  0  0  0  0  0
    8.9037    1.1351    1.0995 H   0  0  0  0  0  0  0  0  0  0  0  0
    7.5990    2.3097   -0.4080 H   0  0  0  0  0  0  0  0  0  0  0  0
    8.6747    1.2433   -1.3459 H   0  0  0  0  0  0  0  0  0  0  0  0
    6.3365    1.1965   -2.2278 H   0  0  0  0  0  0  0  0  0  0  0  0
    6.8478   -0.4060   -1.6814 H   0  0  0  0  0  0  0  0  0  0  0  0
    5.9502   -1.2453    0.6292 H   0  0  0  0  0  0  0  0  0  0  0  0
    4.9295   -0.1337    1.5571 H   0  0  0  0  0  0  0  0  0  0  0  0
    6.7878    1.4203    1.9511 H   0  0  0  0  0  0  0  0  0  0  0  0
    7.2990   -0.2158    2.4049 H   0  0  0  0  0  0  0  0  0  0  0  0
    4.7745    2.4384   -1.1285 H   0  0  0  0  0  0  0  0  0  0  0  0
    5.3179    2.4378    0.5667 H   0  0  0  0  0  0  0  0  0  0  0  0
    2.5793    1.9979   -2.5074 H   0  0  0  0  0  0  0  0  0  0  0  0
    3.5996    0.5087   -2.3292 H   0  0  0  0  0  0  0  0  0  0  0  0
    1.8469    0.3488   -2.6151 H   0  0  0  0  0  0  0  0  0  0  0  0
   -0.1071    1.4610   -1.5859 H   0  0  0  0  0  0  0  0  0  0  0  0
   -2.1968    0.5394   -0.7253 H   0  0  0  0  0  0  0  0  0  0  0  0
   -0.0148   -1.5051    2.3890 H   0  0  0  0  0  0  0  0  0  0  0  0
    2.0874   -0.6076    1.4954 H   0  0  0  0  0  0  0  0  0  0  0  0
   -2.4055   -1.9201    2.1044 H   0  0  0  0  0  0  0  0  0  0  0  0
   -6.1688   -0.4162   -1.0651 H   0  0  0  0  0  0  0  0  0  0  0  0
   -8.4353    3.2529   -0.7377 H   0  0  0  0  0  0  0  0  0  0  0  0
   -6.8891    4.0561    1.0154 H   0  0  0  0  0  0  0  0  0  0  0  0
   -4.5956    3.4849    2.4517 H   0  0  0  0  0  0  0  0  0  0  0  0
   -6.1968   -1.8871    1.6042 H   0  0  0  0  0  0  0  0  0  0  0  0
   -7.3729   -3.7674    0.5117 H   0  0  0  0  0  0  0  0  0  0  0  0
   -6.3582   -4.9072   -1.4407 H   0  0  0  0  0  0  0  0  0  0  0  0
   -4.1541   -4.1712   -2.3004 H   0  0  0  0  0  0  0  0  0  0  0  0
   -2.9644   -2.2912   -1.2264 H   0  0  0  0  0  0  0  0  0  0  0  0
  1  2  1  0
  2  3  1  0
  3  4  1  0
  4  5  1  0
  5  6  1  0
  6  7  1  0
  5  8  1  0
  8  9  1  0
  9 10  2  0
  9 11  1  0
 11 12  1  0
 11 13  1  0
 13 14  2  0
 14 15  1  0
 15 16  2  0
 16 17  1  0
 17 18  2  0
 16 19  1  0
 19 20  1  0
 20 21  2  0
 21 22  1  0
 22 23  2  0
 23 24  1  0
 24 25  2  0
 25 26  1  0
 26 27  2  0
 27 28  1  0
 28 29  1  0
 29 30  2  0
 24 31  1  0
 31 32  2  0
 31 33  1  0
 20 34  1  0
 34 35  2  0
 35 36  1  0
 36 37  2  0
 37 38  1  0
 38 39  2  0
  7  2  1  0
 18 13  1  0
 29 21  1  0
 27 22  1  0
 39 34  1  0
  1 40  1  0
  1 41  1  0
  1 42  1  0
  2 43  1  0
  3 44  1  0
  3 45  1  0
  4 46  1  0
  4 47  1  0
  6 48  1  0
  6 49  1  0
  7 50  1  0
  7 51  1  0
  8 52  1  0
  8 53  1  0
 12 54  1  0
 12 55  1  0
 12 56  1  0
 14 57  1  0
 15 58  1  0
 17 59  1  0
 18 60  1  0
 19 61  1  0
 23 62  1  0
 25 63  1  0
 26 64  1  0
 28 65  1  0
 35 66  1  0
 36 67  1  0
 37 68  1  0
 38 69  1  0
 39 70  1  0
M  CHG  2   2   1  33  -1
M  END
