CHEMBL223367_P10000055
     RDKit          3D

 52 54  0  0  0  0  0  0  0  0999 V2000
    1.6513    0.0866   -0.5366 C   0  0  0  0  0  0  0  0  0  0  0  0
    2.4147    0.2946    0.6214 C   0  0  0  0  0  0  0  0  0  0  0  0
    2.2330   -0.5614    1.7234 C   0  0  0  0  0  0  0  0  0  0  0  0
    1.2867   -1.5855    1.6590 C   0  0  0  0  0  0  0  0  0  0  0  0
    0.4937   -1.7741    0.5145 C   0  0  0  0  0  0  0  0  0  0  0  0
    0.6807   -0.9202   -0.6047 C   0  0  0  0  0  0  0  0  0  0  0  0
   -0.0588   -0.9859   -1.7994 O   0  0  0  0  0  0  0  0  0  0  0  0
   -1.2789   -1.6889   -2.0167 C   0  0  0  0  0  0  0  0  0  0  0  0
   -2.0105   -1.0918   -3.2192 C   0  0  0  0  0  0  0  0  0  0  0  0
   -2.4066    0.3877   -3.0136 C   0  0  0  0  0  0  0  0  0  0  0  0
   -3.8835    0.5868   -2.6268 C   0  0  0  0  0  0  0  0  0  0  0  0
   -4.1848    0.2882   -1.1563 C   0  0  0  0  0  0  0  0  0  0  0  0
   -3.4894    1.2076   -0.3130 O   0  0  0  0  0  0  0  0  0  0  0  0
   -2.7426    0.8485    0.8181 C   0  0  0  0  0  0  0  0  0  0  0  0
   -2.2180    1.8464    1.6523 C   0  0  0  0  0  0  0  0  0  0  0  0
   -1.5527    1.4915    2.7826 N   0  0  0  0  0  0  0  0  0  0  0  0
   -1.3713    0.1878    3.1163 C   0  0  0  0  0  0  0  0  0  0  0  0
   -1.8525   -0.8122    2.2668 C   0  0  0  0  0  0  0  0  0  0  0  0
   -2.5333   -0.4579    1.1428 N   0  0  0  0  0  0  0  0  0  0  0  0
   -1.6420   -2.1921    2.5846 N   0  0  0  0  0  0  0  0  0  0  0  0
   -1.3106   -3.1742    1.5935 C   0  0  0  0  0  0  0  0  0  0  0  0
   -1.7598   -4.3444    1.7146 O   0  0  0  0  0  0  0  0  0  0  0  0
   -0.4385   -2.8661    0.4930 N   0  0  0  0  0  0  0  0  0  0  0  0
   -2.3936    3.2402    1.3426 C   0  0  0  0  0  0  0  0  0  0  0  0
   -2.5347    4.3613    1.0930 N   0  0  0  0  0  0  0  0  0  0  0  0
    3.1806   -0.3960    3.1985 Cl  0  0  0  0  0  0  0  0  0  0  0  0
    3.4497    1.3942    0.6330 C   0  0  0  0  0  0  0  0  0  0  0  0
    4.8152    0.8562    0.1915 C   0  0  0  0  0  0  0  0  0  0  0  0
    5.8750    1.9605    0.2068 C   0  0  0  0  0  0  0  0  0  0  0  0
    7.1069    1.4556   -0.2313 O   0  0  0  0  0  0  0  0  0  0  0  0
    1.7960    0.7302   -1.3965 H   0  0  0  0  0  0  0  0  0  0  0  0
    1.1733   -2.2499    2.5067 H   0  0  0  0  0  0  0  0  0  0  0  0
   -1.9279   -1.6265   -1.1265 H   0  0  0  0  0  0  0  0  0  0  0  0
   -1.0560   -2.7531   -2.2381 H   0  0  0  0  0  0  0  0  0  0  0  0
   -2.9023   -1.7138   -3.4504 H   0  0  0  0  0  0  0  0  0  0  0  0
   -1.3337   -1.1632   -4.0989 H   0  0  0  0  0  0  0  0  0  0  0  0
   -1.7423    0.8938   -2.2799 H   0  0  0  0  0  0  0  0  0  0  0  0
   -2.2513    0.9129   -3.9815 H   0  0  0  0  0  0  0  0  0  0  0  0
   -4.1576    1.6464   -2.8244 H   0  0  0  0  0  0  0  0  0  0  0  0
   -4.5357   -0.0394   -3.2735 H   0  0  0  0  0  0  0  0  0  0  0  0
   -5.2739    0.4317   -0.9938 H   0  0  0  0  0  0  0  0  0  0  0  0
   -3.9628   -0.7691   -0.9132 H   0  0  0  0  0  0  0  0  0  0  0  0
   -0.8320   -0.0672    4.0191 H   0  0  0  0  0  0  0  0  0  0  0  0
   -1.7324   -2.4987    3.5793 H   0  0  0  0  0  0  0  0  0  0  0  0
   -0.3422   -3.5759   -0.2660 H   0  0  0  0  0  0  0  0  0  0  0  0
    3.1367    2.2135   -0.0516 H   0  0  0  0  0  0  0  0  0  0  0  0
    3.5248    1.8426    1.6467 H   0  0  0  0  0  0  0  0  0  0  0  0
    4.7355    0.4431   -0.8382 H   0  0  0  0  0  0  0  0  0  0  0  0
    5.1327    0.0380    0.8742 H   0  0  0  0  0  0  0  0  0  0  0  0
    5.5674    2.7794   -0.4781 H   0  0  0  0  0  0  0  0  0  0  0  0
    5.9754    2.3868    1.2313 H   0  0  0  0  0  0  0  0  0  0  0  0
    7.4826    0.9294    0.5223 H   0  0  0  0  0  0  0  0  0  0  0  0
  1  2  2  0
  2  3  1  0
  3  4  2  0
  4  5  1  0
  5  6  2  0
  6  7  1  0
  7  8  1  0
  8  9  1  0
  9 10  1  0
 10 11  1  0
 11 12  1  0
 12 13  1  0
 13 14  1  0
 14 15  1  0
 15 16  2  0
 16 17  1  0
 17 18  2  0
 18 19  1  0
 18 20  1  0
 20 21  1  0
 21 22  2  0
 21 23  1  0
 15 24  1  0
 24 25  3  0
  3 26  1  0
  2 27  1  0
 27 28  1  0
 28 29  1  0
 29 30  1  0
  6  1  1  0
 23  5  1  0
 19 14  2  0
  1 31  1  0
  4 32  1  0
  8 33  1  0
  8 34  1  0
  9 35  1  0
  9 36  1  0
 10 37  1  0
 10 38  1  0
 11 39  1  0
 11 40  1  0
 12 41  1  0
 12 42  1  0
 17 43  1  0
 20 44  1  0
 23 45  1  0
 27 46  1  0
 27 47  1  0
 28 48  1  0
 28 49  1  0
 29 50  1  0
 29 51  1  0
 30 52  1  0
M  END
